demo/hawaii/Hawaii40_20231026.RAW
 0,    100.00, 33, 0, 0, 60.00       / October 26, 2023 09:04:49; Simulator Version 23; BuildDate 2023_8_27


    1,'ALOHA138    ', 138.0000,1,   1,   1,   1,0.99354529,  -1.119907, 1.10000, 0.90000, 1.10000, 0.90000
    2,'ALOHA69     ',  69.0000,2,   1,   1,   1,0.99122500,  -3.927372, 1.10000, 0.90000, 1.10000, 0.90000
    3,'FLOWER69    ',  69.0000,1,   1,   1,   1,0.98454767,  -4.731145, 1.10000, 0.90000, 1.10000, 0.90000
    4,'WAVE69      ',  69.0000,1,   1,   1,   1,0.97879988,  -5.745870, 1.10000, 0.90000, 1.10000, 0.90000
    5,'HONOLULU138 ', 138.0000,1,   1,   1,   1,0.98898470,  -2.069793, 1.10000, 0.90000, 1.10000, 0.90000
    6,'HONOLULU69  ',  69.0000,1,   1,   1,   1,0.98120642,  -5.528160, 1.10000, 0.90000, 1.10000, 0.90000
    7,'SURF69      ',  69.0000,1,   1,   1,   1,0.98058259,  -5.671337, 1.10000, 0.90000, 1.10000, 0.90000
    8,'KANEOHE69   ',  69.0000,1,   1,   1,   1,0.97861868,  -5.702381, 1.10000, 0.90000, 1.10000, 0.90000
    9,'TURTLE138   ', 138.0000,1,   1,   1,   1,0.98676777,  -2.548359, 1.10000, 0.90000, 1.10000, 0.90000
   10,'TURTLE69    ',  69.0000,1,   1,   1,   1,0.98094100,  -5.651960, 1.10000, 0.90000, 1.10000, 0.90000
   11,'MAHALO69    ',  69.0000,1,   1,   1,   1,0.97491151,  -6.522955, 1.10000, 0.90000, 1.10000, 0.90000
   12,'LYCHEE69    ',  69.0000,1,   1,   1,   1,0.97732693,  -6.198354, 1.10000, 0.90000, 1.10000, 0.90000
   13,'COCONUT69   ',  69.0000,1,   1,   1,   1,0.97895300,  -6.094816, 1.10000, 0.90000, 1.10000, 0.90000
   14,'KAILUA138   ', 138.0000,1,   1,   1,   1,0.98376411,  -3.136205, 1.10000, 0.90000, 1.10000, 0.90000
   15,'KAILUA69    ',  69.0000,1,   1,   1,   1,0.97863114,  -6.029763, 1.10000, 0.90000, 1.10000, 0.90000
   16,'PALM69      ',  69.0000,1,   1,   1,   1,0.98218662,  -6.456032, 1.10000, 0.90000, 1.10000, 0.90000
   17,'WAIMANALO69 ',  69.0000,1,   1,   1,   1,0.97549564,  -6.981904, 1.10000, 0.90000, 1.10000, 0.90000
   18,'VOLCANO69   ',  69.0000,1,   1,   1,   1,0.97596043,  -7.121150, 1.10000, 0.90000, 1.10000, 0.90000
   19,'PEARL CITY69',  69.0000,1,   1,   1,   1,0.99130398,  -3.514222, 1.10000, 0.90000, 1.10000, 0.90000
   20,'MILILANI69  ',  69.0000,1,   1,   1,   1,0.98966032,  -1.963951, 1.10000, 0.90000, 1.10000, 0.90000
   21,'AIEA69      ',  69.0000,1,   1,   1,   1,0.97994220,  -5.268157, 1.10000, 0.90000, 1.10000, 0.90000
   22,'WAIPAHU138  ', 138.0000,1,   1,   1,   1,0.99639744,  -0.844548, 1.10000, 0.90000, 1.10000, 0.90000
   23,'WAIPAHU69   ',  69.0000,3,   1,   1,   1,1.00000000,  -2.106015, 1.10000, 0.90000, 1.10000, 0.90000
   24,'KAPOLEI69   ',  69.0000,1,   1,   1,   1,0.99340194,  -3.706851, 1.10000, 0.90000, 1.10000, 0.90000
   25,'EWA BEACH138', 138.0000,1,   1,   1,   1,0.99661410,  -0.528763, 1.10000, 0.90000, 1.10000, 0.90000
   26,'EWA BEACH69 ',  69.0000,2,   1,   1,   1,0.99510455,  -3.596866, 1.10000, 0.90000, 1.10000, 0.90000
   27,'KAHUKU69    ',  69.0000,2,   1,   1,   1,1.00341642,   1.362694, 1.10000, 0.90000, 1.10000, 0.90000
   28,'HALEIWA69   ',  69.0000,2,   1,   1,   1,1.00000000,   0.234055, 1.10000, 0.90000, 1.10000, 0.90000
   29,'LAIE69      ',  69.0000,1,   1,   1,   1,0.99538332,  -0.097274, 1.10000, 0.90000, 1.10000, 0.90000
   30,'WAHIAWA69   ',  69.0000,1,   1,   1,   1,0.99579835,  -0.422344, 1.10000, 0.90000, 1.10000, 0.90000
   31,'WAIALUA69   ',  69.0000,1,   1,   1,   1,0.99521500,  -2.101776, 1.10000, 0.90000, 1.10000, 0.90000
   32,'HAUULA69    ',  69.0000,1,   1,   1,   1,0.99121666,  -1.321157, 1.10000, 0.90000, 1.10000, 0.90000
   33,'WAIANAE69   ',  69.0000,2,   1,   1,   1,0.99565202,  -3.050368, 1.10000, 0.90000, 1.10000, 0.90000
   34,'SCHOFIELD69 ',  69.0000,2,   1,   1,   1,1.00000000,  -2.084232, 1.10000, 0.90000, 1.10000, 0.90000
   35,'KALAELOA138 ', 138.0000,2,   1,   1,   1,1.00000000,   0.376390, 1.10000, 0.90000, 1.10000, 0.90000
   36,'COGEN69     ',  69.0000,2,   1,   1,   1,0.99657238,  -3.565242, 1.10000, 0.90000, 1.10000, 0.90000
   37,'KAHE138     ', 138.0000,2,   1,   1,   1,1.00000000,   0.251430, 1.10000, 0.90000, 1.10000, 0.90000
0 / END OF BUS DATA, BEGIN LOAD DATA
    2,'1 ',1,   1,   1,    60.700,     0.000,     0.000,     0.000,     0.000,     0.000,   1,1, 0
    3,'1 ',1,   1,   1,    59.390,     0.000,     0.000,     0.000,     0.000,     0.000,   1,1, 0
    4,'1 ',1,   1,   1,    22.470,     0.000,     0.000,     0.000,     0.000,     0.000,   1,1, 0
    6,'1 ',1,   1,   1,    27.460,     0.000,     0.000,     0.000,     0.000,     0.000,   1,1, 0
    7,'1 ',1,   1,   1,    37.010,     0.000,     0.000,     0.000,     0.000,     0.000,   1,1, 0
    8,'1 ',1,   1,   1,    65.100,     0.000,     0.000,     0.000,     0.000,     0.000,   1,1, 0
   10,'1 ',1,   1,   1,    37.760,     0.000,     0.000,     0.000,     0.000,     0.000,   1,1, 0
   11,'1 ',1,   1,   1,    65.550,     0.000,     0.000,     0.000,     0.000,     0.000,   1,1, 0
   12,'1 ',1,   1,   1,    54.010,     0.000,     0.000,     0.000,     0.000,     0.000,   1,1, 0
   13,'1 ',1,   1,   1,    59.240,     0.000,     0.000,     0.000,     0.000,     0.000,   1,1, 0
   15,'1 ',1,   1,   1,    60.900,     0.000,     0.000,     0.000,     0.000,     0.000,   1,1, 0
   16,'1 ',1,   1,   1,    23.830,     0.000,     0.000,     0.000,     0.000,     0.000,   1,1, 0
   17,'1 ',1,   1,   1,    12.040,     0.000,     0.000,     0.000,     0.000,     0.000,   1,1, 0
   18,'1 ',1,   1,   1,    36.320,     0.000,     0.000,     0.000,     0.000,     0.000,   1,1, 0
   19,'1 ',1,   1,   1,    48.600,     0.000,     0.000,     0.000,     0.000,     0.000,   1,1, 0
   20,'1 ',1,   1,   1,    64.950,     0.000,     0.000,     0.000,     0.000,     0.000,   1,1, 0
   21,'1 ',1,   1,   1,    48.340,     0.000,     0.000,     0.000,     0.000,     0.000,   1,1, 0
   23,'1 ',1,   1,   1,    86.750,     0.000,     0.000,     0.000,     0.000,     0.000,   1,1, 0
   24,'1 ',1,   1,   1,    46.580,     0.000,     0.000,     0.000,     0.000,     0.000,   1,1, 0
   26,'1 ',1,   1,   1,    75.280,     0.000,     0.000,     0.000,     0.000,     0.000,   1,1, 0
   27,'1 ',1,   1,   1,     3.950,     0.000,     0.000,     0.000,     0.000,     0.000,   1,1, 0
   28,'1 ',1,   1,   1,     8.820,     0.000,     0.000,     0.000,     0.000,     0.000,   1,1, 0
   29,'1 ',1,   1,   1,     7.700,     0.000,     0.000,     0.000,     0.000,     0.000,   1,1, 0
   30,'1 ',1,   1,   1,    49.030,     0.000,     0.000,     0.000,     0.000,     0.000,   1,1, 0
   31,'1 ',1,   1,   1,     9.620,     0.000,     0.000,     0.000,     0.000,     0.000,   1,1, 0
   32,'1 ',1,   1,   1,     6.670,     0.000,     0.000,     0.000,     0.000,     0.000,   1,1, 0
   33,'1 ',1,   1,   1,    58.220,     0.000,     0.000,     0.000,     0.000,     0.000,   1,1, 0
0 / END OF LOAD DATA, BEGIN FIXED SHUNT DATA
0 / END OF FIXED SHUNT DATA, BEGIN GENERATOR DATA
    2,'1 ',     2.500,     0.800,     0.800,    -0.500,1.00000,    0,     2.800,   0.00000,   0.15000,   0.00000,   0.00000,1.00000,1,  100.0,     2.500,     1.000,   1,1.0000,   0,1.0000,   0,1.0000,   0,1.0000,0, 1.0000
    2,'2 ',     2.500,     0.800,     0.800,    -0.500,1.00000,    0,     2.800,   0.00000,   0.15000,   0.00000,   0.00000,1.00000,1,  100.0,     2.500,     1.000,   1,1.0000,   0,1.0000,   0,1.0000,   0,1.0000,0, 1.0000
    2,'3 ',     2.500,     0.800,     0.800,    -0.500,1.00000,    0,     2.800,   0.00000,   0.15000,   0.00000,   0.00000,1.00000,1,  100.0,     2.500,     1.000,   1,1.0000,   0,1.0000,   0,1.0000,   0,1.0000,0, 1.0000
    2,'4 ',     2.500,     0.800,     0.800,    -0.500,1.00000,    0,     2.800,   0.00000,   0.15000,   0.00000,   0.00000,1.00000,1,  100.0,     2.500,     1.000,   1,1.0000,   0,1.0000,   0,1.0000,   0,1.0000,0, 1.0000
   23,'1 ',    69.275,     0.044,    23.300,   -14.000,1.00000,    0,    85.600,   0.00000,   0.32000,   0.00000,   0.00000,1.00000,1,  100.0,    77.800,    20.000,   1,1.0000,   0,1.0000,   0,1.0000,   0,1.0000,0, 1.0000
   23,'10',    39.130,     0.044,    13.800,    -8.300,1.00000,    0,    50.500,   0.00000,   1.00000,   0.00000,   0.00000,1.00000,1,  100.0,    45.900,     0.000,   1,1.0000,   0,1.0000,   0,1.0000,   0,1.0000,1, 1.0000
   23,'2 ',    69.275,     0.044,    23.300,   -14.000,1.00000,    0,    85.600,   0.00000,   0.32000,   0.00000,   0.00000,1.00000,1,  100.0,    77.800,    20.000,   1,1.0000,   0,1.0000,   0,1.0000,   0,1.0000,0, 1.0000
   23,'3 ',    47.637,     0.044,    15.600,    -9.400,1.00000,    0,    57.100,   0.00000,   0.32000,   0.00000,   0.00000,1.00000,1,  100.0,    51.900,    23.000,   1,1.0000,   0,1.0000,   0,1.0000,   0,1.0000,0, 1.0000
   23,'4 ',    47.110,     0.044,    15.500,    -9.300,1.00000,    0,    57.000,   0.00000,   0.32000,   0.00000,   0.00000,1.00000,1,  100.0,    51.800,    20.000,   1,1.0000,   0,1.0000,   0,1.0000,   0,1.0000,0, 1.0000
   23,'5 ',    44.533,     0.044,    15.400,    -9.200,1.00000,    0,    56.300,   0.00000,   0.32000,   0.00000,   0.00000,1.00000,1,  100.0,    51.200,     6.000,   1,1.0000,   0,1.0000,   0,1.0000,   0,1.0000,0, 1.0000
   23,'6 ',    44.533,     0.044,    15.400,    -9.200,1.00000,    0,    56.300,   0.00000,   0.32000,   0.00000,   0.00000,1.00000,1,  100.0,    51.200,     6.000,   1,1.0000,   0,1.0000,   0,1.0000,   0,1.0000,0, 1.0000
   23,'7 ',    43.614,     0.044,    14.300,    -8.600,1.00000,    0,    52.500,   0.00000,   0.32000,   0.00000,   0.00000,1.00000,1,  100.0,    47.700,    20.000,   1,1.0000,   0,1.0000,   0,1.0000,   0,1.0000,0, 1.0000
   23,'8 ',    43.188,     0.044,    14.200,    -8.500,1.00000,    0,    51.900,   0.00000,   0.32000,   0.00000,   0.00000,1.00000,1,  100.0,    47.200,    20.000,   1,1.0000,   0,1.0000,   0,1.0000,   0,1.0000,0, 1.0000
   23,'9 ',    12.532,     0.044,     4.400,    -2.600,1.00000,    0,    16.200,   0.00000,   1.00000,   0.00000,   0.00000,1.00000,1,  100.0,    14.700,     0.000,   1,1.0000,   0,1.0000,   0,1.0000,   0,1.0000,1, 1.0000
   26,'1 ',    20.000,     6.000,     6.000,    -3.600,1.00000,    0,    22.000,   0.00000,   1.00000,   0.00000,   0.00000,1.00000,1,  100.0,    20.000,     0.000,   1,1.0000,   0,1.0000,   0,1.0000,   0,1.0000,1, 1.0000
   26,'2 ',    10.200,     3.100,     3.100,    -1.900,1.00000,    0,    11.200,   0.00000,   1.00000,   0.00000,   0.00000,1.00000,1,  100.0,    10.200,     0.000,   1,1.0000,   0,1.0000,   0,1.0000,   0,1.0000,1, 1.0000
   27,'1 ',    30.000,    -5.400,     9.000,    -5.400,1.00000,    0,    33.000,   0.00000,   1.00000,   0.00000,   0.00000,1.00000,1,  100.0,    30.000,     0.000,   1,1.0000,   0,1.0000,   0,1.0000,   0,1.0000,1, 1.0000
   27,'2 ',    27.600,    -5.000,     8.300,    -5.000,1.00000,    0,    30.400,   0.00000,   1.00000,   0.00000,   0.00000,1.00000,1,  100.0,    27.600,     1.000,   1,1.0000,   0,1.0000,   0,1.0000,   0,1.0000,1, 1.0000
   28,'1 ',    46.300,    -5.487,    14.700,    -8.800,1.00000,    0,    53.900,   0.00000,   1.00000,   0.00000,   0.00000,1.00000,1,  100.0,    49.000,     0.000,   1,1.0000,   0,1.0000,   0,1.0000,   0,1.0000,1, 1.0000
   28,'2 ',    69.000,    -5.487,    20.700,   -12.400,1.00000,    0,    75.900,   0.00000,   1.00000,   0.00000,   0.00000,1.00000,1,  100.0,    69.000,     0.000,   1,1.0000,   0,1.0000,   0,1.0000,   0,1.0000,1, 1.0000
   33,'1 ',    27.600,     8.300,     8.300,    -5.000,1.00000,    0,    30.400,   0.00000,   1.00000,   0.00000,   0.00000,1.00000,1,  100.0,    27.600,     0.000,   1,1.0000,   0,1.0000,   0,1.0000,   0,1.0000,1, 1.0000
   34,'1 ',     7.220,    -0.982,     2.500,    -1.500,1.00000,    0,     9.200,   0.00000,   0.16000,   0.00000,   0.00000,1.00000,1,  100.0,     8.400,     2.500,   1,1.0000,   0,1.0000,   0,1.0000,   0,1.0000,0, 1.0000
   34,'2 ',     6.040,    -0.982,     2.500,    -1.500,1.00000,    0,     9.200,   0.00000,   0.16000,   0.00000,   0.00000,1.00000,1,  100.0,     8.400,     2.500,   1,1.0000,   0,1.0000,   0,1.0000,   0,1.0000,0, 1.0000
   34,'3 ',     6.040,    -0.982,     2.500,    -1.500,1.00000,    0,     9.200,   0.00000,   0.16000,   0.00000,   0.00000,1.00000,1,  100.0,     8.400,     2.500,   1,1.0000,   0,1.0000,   0,1.0000,   0,1.0000,0, 1.0000
   34,'4 ',     6.040,    -0.982,     2.500,    -1.500,1.00000,    0,     9.200,   0.00000,   0.16000,   0.00000,   0.00000,1.00000,1,  100.0,     8.400,     2.500,   1,1.0000,   0,1.0000,   0,1.0000,   0,1.0000,0, 1.0000
   34,'5 ',     6.009,    -0.982,     2.500,    -1.500,1.00000,    0,     9.200,   0.00000,   0.16000,   0.00000,   0.00000,1.00000,1,  100.0,     8.400,     2.500,   1,1.0000,   0,1.0000,   0,1.0000,   0,1.0000,0, 1.0000
   34,'6 ',     7.220,    -0.982,     2.500,    -1.500,1.00000,    0,     9.200,   0.00000,   0.16000,   0.00000,   0.00000,1.00000,1,  100.0,     8.400,     2.500,   1,1.0000,   0,1.0000,   0,1.0000,   0,1.0000,0, 1.0000
   35,'1 ',    58.000,     0.053,    17.400,   -10.400,1.00000,    0,    63.800,   0.00000,   0.28000,   0.00000,   0.00000,1.00000,1,  100.0,    58.000,     5.000,   1,1.0000,   0,1.0000,   0,1.0000,   0,1.0000,0, 1.0000
   35,'2 ',    28.000,     0.053,     8.400,    -5.000,1.00000,    0,    30.800,   0.00000,   0.28000,   0.00000,   0.00000,1.00000,1,  100.0,    28.000,     5.000,   1,1.0000,   0,1.0000,   0,1.0000,   0,1.0000,0, 1.0000
   35,'3 ',   180.000,     0.000,    54.000,   -32.400,1.00000,    0,   198.000,   0.00000,   0.28000,   0.00000,   0.00000,1.00000,0,  100.0,   180.000,    63.000,   1,1.0000,   0,1.0000,   0,1.0000,   0,1.0000,0, 1.0000
   35,'4 ',    20.000,     0.053,     6.000,    -3.600,1.00000,    0,    22.000,   0.00000,   0.28000,   0.00000,   0.00000,1.00000,1,  100.0,    20.000,     5.000,   1,1.0000,   0,1.0000,   0,1.0000,   0,1.0000,0, 1.0000
   35,'5 ',    67.000,     0.053,    25.500,   -15.300,1.00000,    0,    93.500,   0.00000,   0.28000,   0.00000,   0.00000,1.00000,1,  100.0,    85.000,    40.000,   1,1.0000,   0,1.0000,   0,1.0000,   0,1.0000,0, 1.0000
   35,'6 ',    85.000,     0.000,    25.500,   -15.300,1.00000,    0,    93.500,   0.00000,   0.28000,   0.00000,   0.00000,1.00000,0,  100.0,    85.000,    40.000,   1,1.0000,   0,1.0000,   0,1.0000,   0,1.0000,0, 1.0000
   35,'7 ',    50.000,     0.053,    15.000,    -9.000,1.00000,    0,    55.000,   0.00000,   0.28000,   0.00000,   0.00000,1.00000,1,  100.0,    50.000,    10.000,   1,1.0000,   0,1.0000,   0,1.0000,   0,1.0000,0, 1.0000
   35,'8 ',    56.200,     0.053,    33.900,   -20.300,1.00000,    0,   124.300,   0.00000,   0.28000,   0.00000,   0.00000,1.00000,1,  100.0,   113.000,    42.000,   1,1.0000,   0,1.0000,   0,1.0000,   0,1.0000,0, 1.0000
   36,'1 ',     2.000,     1.000,     1.000,    -0.600,1.00000,    0,     3.500,   0.00000,   0.17000,   0.00000,   0.00000,1.00000,1,  100.0,     3.200,     2.000,   1,1.0000,   0,1.0000,   0,1.0000,   0,1.0000,0, 1.0000
   36,'2 ',     2.101,     1.000,     1.000,    -0.600,1.00000,    0,     3.500,   0.00000,   0.17000,   0.00000,   0.00000,1.00000,1,  100.0,     3.200,     2.000,   1,1.0000,   0,1.0000,   0,1.0000,   0,1.0000,0, 1.0000
   36,'3 ',     2.000,     1.000,     1.000,    -0.600,1.00000,    0,     3.500,   0.00000,   0.17000,   0.00000,   0.00000,1.00000,1,  100.0,     3.200,     2.000,   1,1.0000,   0,1.0000,   0,1.0000,   0,1.0000,0, 1.0000
   36,'4 ',     2.480,     1.000,     1.000,    -0.600,1.00000,    0,     3.500,   0.00000,   0.17000,   0.00000,   0.00000,1.00000,1,  100.0,     3.200,     2.000,   1,1.0000,   0,1.0000,   0,1.0000,   0,1.0000,0, 1.0000
   37,'1 ',   128.700,     0.000,    38.600,   -23.200,1.00000,    0,   141.600,   0.00000,   0.13000,   0.00000,   0.00000,1.00000,0,  100.0,   128.700,    45.000,   1,1.0000,   0,1.0000,   0,1.0000,   0,1.0000,0, 1.0000
   37,'2 ',   128.100,     0.000,    38.400,   -23.000,1.00000,    0,   140.900,   0.00000,   0.13000,   0.00000,   0.00000,1.00000,0,  100.0,   128.100,    55.000,   1,1.0000,   0,1.0000,   0,1.0000,   0,1.0000,0, 1.0000
   37,'3 ',    58.324,     5.626,    26.200,   -15.700,1.00000,    0,    95.900,   0.00000,   0.13000,   0.00000,   0.00000,1.00000,1,  100.0,    87.200,    20.000,   1,1.0000,   0,1.0000,   0,1.0000,   0,1.0000,0, 1.0000
   37,'4 ',    82.100,     0.000,    24.600,   -14.800,1.00000,    0,    90.300,   0.00000,   0.13000,   0.00000,   0.00000,1.00000,0,  100.0,    82.100,    20.000,   1,1.0000,   0,1.0000,   0,1.0000,   0,1.0000,0, 1.0000
   37,'5 ',    68.480,     5.626,    23.400,   -14.000,1.00000,    0,    85.900,   0.00000,   0.13000,   0.00000,   0.00000,1.00000,1,  100.0,    78.100,    30.000,   1,1.0000,   0,1.0000,   0,1.0000,   0,1.0000,0, 1.0000
   37,'6 ',    77.900,     0.000,    23.400,   -14.000,1.00000,    0,    85.700,   0.00000,   0.13000,   0.00000,   0.00000,1.00000,0,  100.0,    77.900,    20.000,   1,1.0000,   0,1.0000,   0,1.0000,   0,1.0000,0, 1.0000
0 / END OF GENERATOR DATA, BEGIN BRANCH DATA
     1,     5,'1 ',3.40000E-3,2.09130E-2,8.46000E-3, 232.80, 232.80, 232.80,  0.00000,  0.00000,  0.00000,  0.00000, 1,1,   0.00,   1,1.0000,   0,1.0000,   0,1.0000,   0,1.0000
     1,     5,'2 ',3.40000E-3,2.09130E-2,8.46000E-3, 232.80, 232.80, 232.80,  0.00000,  0.00000,  0.00000,  0.00000, 1,1,   0.00,   1,1.0000,   0,1.0000,   0,1.0000,   0,1.0000
     1,    22,'1 ',3.74000E-3,2.41730E-2,6.05000E-3, 177.80, 177.80, 177.80,  0.00000,  0.00000,  0.00000,  0.00000, 1,1,   0.00,   1,1.0000,   0,1.0000,   0,1.0000,   0,1.0000
     1,    25,'1 ',2.89000E-3,1.57980E-2,7.71000E-3, 217.00, 217.00, 217.00,  0.00000,  0.00000,  0.00000,  0.00000, 1,1,   0.00,   1,1.0000,   0,1.0000,   0,1.0000,   0,1.0000
     1,    25,'2 ',2.89000E-3,1.57980E-2,7.71000E-3, 217.00, 217.00, 217.00,  0.00000,  0.00000,  0.00000,  0.00000, 1,1,   0.00,   1,1.0000,   0,1.0000,   0,1.0000,   0,1.0000
     1,    35,'1 ',1.08000E-2,4.19220E-2,1.28400E-2, 281.60, 281.60, 281.60,  0.00000,  0.00000,  0.00000,  0.00000, 1,1,   0.00,   1,1.0000,   0,1.0000,   0,1.0000,   0,1.0000
     1,    35,'2 ',1.08000E-2,4.19220E-2,1.28400E-2, 281.60, 281.60, 281.60,  0.00000,  0.00000,  0.00000,  0.00000, 1,1,   0.00,   1,1.0000,   0,1.0000,   0,1.0000,   0,1.0000
     2,     4,'1 ',4.29600E-2,7.93570E-2,2.57000E-3,  66.80,  66.80,  66.80,  0.00000,  0.00000,  0.00000,  0.00000, 1,1,   0.00,   1,1.0000,   0,1.0000,   0,1.0000,   0,1.0000
     2,     6,'1 ',2.68900E-2,5.86000E-2,3.12000E-3,  82.00,  82.00,  82.00,  0.00000,  0.00000,  0.00000,  0.00000, 1,1,   0.00,   1,1.0000,   0,1.0000,   0,1.0000,   0,1.0000
     2,     6,'2 ',2.68900E-2,5.86000E-2,3.12000E-3,  82.00,  82.00,  82.00,  0.00000,  0.00000,  0.00000,  0.00000, 1,1,   0.00,   1,1.0000,   0,1.0000,   0,1.0000,   0,1.0000
     2,     7,'1 ',2.75400E-2,7.56910E-2,3.77000E-3,  77.80,  77.80,  77.80,  0.00000,  0.00000,  0.00000,  0.00000, 1,1,   0.00,   1,1.0000,   0,1.0000,   0,1.0000,   0,1.0000
     2,    21,'1 ',3.64600E-2,7.73370E-2,1.73000E-3,  94.80,  94.80,  94.80,  0.00000,  0.00000,  0.00000,  0.00000, 1,1,   0.00,   1,1.0000,   0,1.0000,   0,1.0000,   0,1.0000
     2,    23,'1 ',3.26200E-2,8.10300E-2,1.80000E-3, 101.30, 101.30, 101.30,  0.00000,  0.00000,  0.00000,  0.00000, 1,1,   0.00,   1,1.0000,   0,1.0000,   0,1.0000,   0,1.0000
     2,    23,'2 ',3.26200E-2,8.10300E-2,1.80000E-3, 101.30, 101.30, 101.30,  0.00000,  0.00000,  0.00000,  0.00000, 1,1,   0.00,   1,1.0000,   0,1.0000,   0,1.0000,   0,1.0000
     2,    23,'3 ',3.26200E-2,8.10300E-2,1.80000E-3, 101.30, 101.30, 101.30,  0.00000,  0.00000,  0.00000,  0.00000, 1,1,   0.00,   1,1.0000,   0,1.0000,   0,1.0000,   0,1.0000
     2,    26,'1 ',3.04900E-2,6.61160E-2,1.86000E-3,  61.70,  61.70,  61.70,  0.00000,  0.00000,  0.00000,  0.00000, 1,1,   0.00,   1,1.0000,   0,1.0000,   0,1.0000,   0,1.0000
     2,    26,'2 ',3.04900E-2,6.61160E-2,1.86000E-3,  61.70,  61.70,  61.70,  0.00000,  0.00000,  0.00000,  0.00000, 1,1,   0.00,   1,1.0000,   0,1.0000,   0,1.0000,   0,1.0000
     3,     6,'1 ',1.47800E-2,3.66900E-2,1.04000E-3,  85.00,  85.00,  85.00,  0.00000,  0.00000,  0.00000,  0.00000, 1,1,   0.00,   1,1.0000,   0,1.0000,   0,1.0000,   0,1.0000
     3,     6,'2 ',1.47800E-2,3.66900E-2,1.04000E-3,  85.00,  85.00,  85.00,  0.00000,  0.00000,  0.00000,  0.00000, 1,1,   0.00,   1,1.0000,   0,1.0000,   0,1.0000,   0,1.0000
     3,    16,'1 ',2.38300E-2,6.35850E-2,5.04000E-3,  82.80,  82.80,  82.80,  0.00000,  0.00000,  0.00000,  0.00000, 1,1,   0.00,   1,1.0000,   0,1.0000,   0,1.0000,   0,1.0000
     3,    19,'1 ',1.38200E-2,3.12290E-2,5.41000E-3,  91.60,  91.60,  91.60,  0.00000,  0.00000,  0.00000,  0.00000, 1,1,   0.00,   1,1.0000,   0,1.0000,   0,1.0000,   0,1.0000
     3,    19,'2 ',1.38200E-2,3.12290E-2,5.41000E-3,  91.60,  91.60,  91.60,  0.00000,  0.00000,  0.00000,  0.00000, 1,1,   0.00,   1,1.0000,   0,1.0000,   0,1.0000,   0,1.0000
     3,    19,'3 ',1.38200E-2,3.12290E-2,5.41000E-3,  91.60,  91.60,  91.60,  0.00000,  0.00000,  0.00000,  0.00000, 1,1,   0.00,   1,1.0000,   0,1.0000,   0,1.0000,   0,1.0000
     3,    21,'1 ',2.42300E-2,4.75080E-2,1.52000E-3,  49.00,  49.00,  49.00,  0.00000,  0.00000,  0.00000,  0.00000, 1,1,   0.00,   1,1.0000,   0,1.0000,   0,1.0000,   0,1.0000
     4,    13,'1 ',1.21400E-2,3.84860E-2,1.70000E-3,  53.20,  53.20,  53.20,  0.00000,  0.00000,  0.00000,  0.00000, 1,1,   0.00,   1,1.0000,   0,1.0000,   0,1.0000,   0,1.0000
     5,     9,'1 ',2.29000E-3,1.20580E-2,4.09000E-3, 170.70, 170.70, 170.70,  0.00000,  0.00000,  0.00000,  0.00000, 1,1,   0.00,   1,1.0000,   0,1.0000,   0,1.0000,   0,1.0000
     5,    14,'1 ',5.74000E-3,3.88150E-2,6.87000E-3, 162.50, 162.50, 162.50,  0.00000,  0.00000,  0.00000,  0.00000, 1,1,   0.00,   1,1.0000,   0,1.0000,   0,1.0000,   0,1.0000
     7,     6,'1 ',4.00000E-3,1.00000E-2,9.60000E-4,  40.20,  40.20,  40.20,  0.00000,  0.00000,  0.00000,  0.00000, 1,1,   0.00,   1,1.0000,   0,1.0000,   0,1.0000,   0,1.0000
     7,     6,'2 ',4.00000E-3,1.00000E-2,9.60000E-4,  40.20,  40.20,  40.20,  0.00000,  0.00000,  0.00000,  0.00000, 1,1,   0.00,   1,1.0000,   0,1.0000,   0,1.0000,   0,1.0000
     7,     6,'3 ',4.00000E-3,1.00000E-2,9.60000E-4,  40.20,  40.20,  40.20,  0.00000,  0.00000,  0.00000,  0.00000, 1,1,   0.00,   1,1.0000,   0,1.0000,   0,1.0000,   0,1.0000
     6,    11,'1 ',1.98000E-2,4.23950E-2,9.70000E-4,  89.00,  89.00,  89.00,  0.00000,  0.00000,  0.00000,  0.00000, 1,1,   0.00,   1,1.0000,   0,1.0000,   0,1.0000,   0,1.0000
     6,    12,'1 ',1.36400E-2,3.31910E-2,6.60000E-4,  58.80,  58.80,  58.80,  0.00000,  0.00000,  0.00000,  0.00000, 1,1,   0.00,   1,1.0000,   0,1.0000,   0,1.0000,   0,1.0000
     6,    12,'2 ',1.36400E-2,3.31910E-2,6.60000E-4,  58.80,  58.80,  58.80,  0.00000,  0.00000,  0.00000,  0.00000, 1,1,   0.00,   1,1.0000,   0,1.0000,   0,1.0000,   0,1.0000
     7,    10,'1 ',4.00000E-3,1.00000E-2,9.60000E-4,  50.00,  50.00,  50.00,  0.00000,  0.00000,  0.00000,  0.00000, 1,1,   0.00,   1,1.0000,   0,1.0000,   0,1.0000,   0,1.0000
     7,    13,'1 ',9.41000E-3,2.77060E-2,9.60000E-4,  40.20,  40.20,  40.20,  0.00000,  0.00000,  0.00000,  0.00000, 1,1,   0.00,   1,1.0000,   0,1.0000,   0,1.0000,   0,1.0000
     7,    13,'2 ',9.41000E-3,2.77060E-2,9.60000E-4,  40.20,  40.20,  40.20,  0.00000,  0.00000,  0.00000,  0.00000, 1,1,   0.00,   1,1.0000,   0,1.0000,   0,1.0000,   0,1.0000
     7,    13,'3 ',9.41000E-3,2.77060E-2,9.60000E-4,  40.20,  40.20,  40.20,  0.00000,  0.00000,  0.00000,  0.00000, 1,1,   0.00,   1,1.0000,   0,1.0000,   0,1.0000,   0,1.0000
     8,    15,'1 ',3.13900E-2,7.58480E-2,1.97000E-3,  84.90,  84.90,  84.90,  0.00000,  0.00000,  0.00000,  0.00000, 1,1,   0.00,   1,1.0000,   0,1.0000,   0,1.0000,   0,1.0000
     8,    19,'1 ',3.69900E-2,1.02463E-1,2.46000E-3,  90.00,  90.00,  90.00,  0.00000,  0.00000,  0.00000,  0.00000, 1,1,   0.00,   1,1.0000,   0,1.0000,   0,1.0000,   0,1.0000
     8,    19,'2 ',3.69900E-2,1.02463E-1,2.46000E-3,  90.00,  90.00,  90.00,  0.00000,  0.00000,  0.00000,  0.00000, 1,1,   0.00,   1,1.0000,   0,1.0000,   0,1.0000,   0,1.0000
     9,    14,'1 ',9.33000E-3,3.78480E-2,1.01700E-2, 169.30, 169.30, 169.30,  0.00000,  0.00000,  0.00000,  0.00000, 1,1,   0.00,   1,1.0000,   0,1.0000,   0,1.0000,   0,1.0000
    11,    13,'1 ',1.84400E-2,4.77710E-2,2.24000E-3,  45.30,  45.30,  45.30,  0.00000,  0.00000,  0.00000,  0.00000, 1,1,   0.00,   1,1.0000,   0,1.0000,   0,1.0000,   0,1.0000
    11,    15,'1 ',2.32800E-2,6.92210E-2,1.52000E-3,  48.60,  48.60,  48.60,  0.00000,  0.00000,  0.00000,  0.00000, 1,1,   0.00,   1,1.0000,   0,1.0000,   0,1.0000,   0,1.0000
    12,    15,'1 ',1.51100E-2,4.14640E-2,4.14000E-3,  77.00,  77.00,  77.00,  0.00000,  0.00000,  0.00000,  0.00000, 1,1,   0.00,   1,1.0000,   0,1.0000,   0,1.0000,   0,1.0000
    12,    17,'1 ',2.27800E-2,6.53410E-2,2.82000E-3,  49.90,  49.90,  49.90,  0.00000,  0.00000,  0.00000,  0.00000, 1,1,   0.00,   1,1.0000,   0,1.0000,   0,1.0000,   0,1.0000
    13,    16,'1 ',1.30900E-2,3.25470E-2,1.10000E-3,  52.00,  52.00,  52.00,  0.00000,  0.00000,  0.00000,  0.00000, 1,1,   0.00,   1,1.0000,   0,1.0000,   0,1.0000,   0,1.0000
    16,    18,'1 ',1.55300E-2,3.92280E-2,1.91000E-3,  51.70,  51.70,  51.70,  0.00000,  0.00000,  0.00000,  0.00000, 1,1,   0.00,   1,1.0000,   0,1.0000,   0,1.0000,   0,1.0000
    17,    18,'1 ',9.84000E-3,2.97540E-2,1.45000E-3,  47.90,  47.90,  47.90,  0.00000,  0.00000,  0.00000,  0.00000, 1,1,   0.00,   1,1.0000,   0,1.0000,   0,1.0000,   0,1.0000
    19,    23,'1 ',1.25800E-2,3.04490E-2,1.33000E-3, 100.30, 100.30, 100.30,  0.00000,  0.00000,  0.00000,  0.00000, 1,1,   0.00,   1,1.0000,   0,1.0000,   0,1.0000,   0,1.0000
    19,    23,'2 ',1.25800E-2,3.04490E-2,1.33000E-3, 100.30, 100.30, 100.30,  0.00000,  0.00000,  0.00000,  0.00000, 1,1,   0.00,   1,1.0000,   0,1.0000,   0,1.0000,   0,1.0000
    19,    23,'3 ',1.25800E-2,3.04490E-2,1.33000E-3, 100.30, 100.30, 100.30,  0.00000,  0.00000,  0.00000,  0.00000, 1,1,   0.00,   1,1.0000,   0,1.0000,   0,1.0000,   0,1.0000
    19,    23,'4 ',1.25800E-2,3.04490E-2,1.33000E-3, 100.30, 100.30, 100.30,  0.00000,  0.00000,  0.00000,  0.00000, 1,1,   0.00,   1,1.0000,   0,1.0000,   0,1.0000,   0,1.0000
    20,    23,'1 ',4.26600E-2,7.48440E-2,1.79000E-3,  85.80,  85.80,  85.80,  0.00000,  0.00000,  0.00000,  0.00000, 1,1,   0.00,   1,1.0000,   0,1.0000,   0,1.0000,   0,1.0000
    20,    30,'1 ',2.78000E-2,6.84870E-2,3.00000E-3,  64.40,  64.40,  64.40,  0.00000,  0.00000,  0.00000,  0.00000, 1,1,   0.00,   1,1.0000,   0,1.0000,   0,1.0000,   0,1.0000
    20,    32,'1 ',1.49400E-2,3.99160E-2,3.35000E-3,  52.00,  52.00,  52.00,  0.00000,  0.00000,  0.00000,  0.00000, 1,1,   0.00,   1,1.0000,   0,1.0000,   0,1.0000,   0,1.0000
    22,    25,'1 ',2.98000E-3,1.76790E-2,7.75000E-3, 277.00, 277.00, 277.00,  0.00000,  0.00000,  0.00000,  0.00000, 1,1,   0.00,   1,1.0000,   0,1.0000,   0,1.0000,   0,1.0000
    22,    37,'1 ',6.82000E-3,4.08410E-2,1.10400E-2, 292.90, 292.90, 292.90,  0.00000,  0.00000,  0.00000,  0.00000, 1,1,   0.00,   1,1.0000,   0,1.0000,   0,1.0000,   0,1.0000
    23,    34,'1 ',3.01400E-2,9.17200E-2,1.93000E-3,  74.40,  74.40,  74.40,  0.00000,  0.00000,  0.00000,  0.00000, 1,1,   0.00,   1,1.0000,   0,1.0000,   0,1.0000,   0,1.0000
    23,    34,'2 ',3.01400E-2,9.17200E-2,1.93000E-3,  74.40,  74.40,  74.40,  0.00000,  0.00000,  0.00000,  0.00000, 1,1,   0.00,   1,1.0000,   0,1.0000,   0,1.0000,   0,1.0000
    24,    26,'1 ',1.64500E-2,5.34800E-2,1.35000E-3,  65.60,  65.60,  65.60,  0.00000,  0.00000,  0.00000,  0.00000, 1,1,   0.00,   1,1.0000,   0,1.0000,   0,1.0000,   0,1.0000
    24,    26,'2 ',1.64500E-2,5.34800E-2,1.35000E-3,  65.60,  65.60,  65.60,  0.00000,  0.00000,  0.00000,  0.00000, 1,1,   0.00,   1,1.0000,   0,1.0000,   0,1.0000,   0,1.0000
    24,    33,'1 ',1.69000E-2,3.31910E-2,1.10200E-2,  69.50,  69.50,  69.50,  0.00000,  0.00000,  0.00000,  0.00000, 1,1,   0.00,   1,1.0000,   0,1.0000,   0,1.0000,   0,1.0000
    24,    36,'1 ',1.89300E-2,3.75510E-2,1.94000E-3,  48.70,  48.70,  48.70,  0.00000,  0.00000,  0.00000,  0.00000, 1,1,   0.00,   1,1.0000,   0,1.0000,   0,1.0000,   0,1.0000
    25,    35,'1 ',4.13000E-3,2.44200E-2,6.85000E-3, 201.40, 201.40, 201.40,  0.00000,  0.00000,  0.00000,  0.00000, 1,1,   0.00,   1,1.0000,   0,1.0000,   0,1.0000,   0,1.0000
    25,    35,'2 ',4.13000E-3,2.44200E-2,6.85000E-3, 201.40, 201.40, 201.40,  0.00000,  0.00000,  0.00000,  0.00000, 1,1,   0.00,   1,1.0000,   0,1.0000,   0,1.0000,   0,1.0000
    25,    37,'1 ',4.89000E-3,2.61450E-2,7.80000E-3, 224.00, 224.00, 224.00,  0.00000,  0.00000,  0.00000,  0.00000, 1,1,   0.00,   1,1.0000,   0,1.0000,   0,1.0000,   0,1.0000
    25,    37,'2 ',4.89000E-3,2.61450E-2,7.80000E-3, 224.00, 224.00, 224.00,  0.00000,  0.00000,  0.00000,  0.00000, 1,1,   0.00,   1,1.0000,   0,1.0000,   0,1.0000,   0,1.0000
    27,    29,'1 ',2.38800E-2,4.28320E-2,1.28000E-3,  67.50,  67.50,  67.50,  0.00000,  0.00000,  0.00000,  0.00000, 1,1,   0.00,   1,1.0000,   0,1.0000,   0,1.0000,   0,1.0000
    28,    30,'1 ',1.12000E-2,3.13960E-2,4.33000E-3,  70.00,  70.00,  70.00,  0.00000,  0.00000,  0.00000,  0.00000, 1,1,   0.00,   1,1.0000,   0,1.0000,   0,1.0000,   0,1.0000
    28,    30,'2 ',1.12000E-2,3.13960E-2,4.33000E-3,  70.00,  70.00,  70.00,  0.00000,  0.00000,  0.00000,  0.00000, 1,1,   0.00,   1,1.0000,   0,1.0000,   0,1.0000,   0,1.0000
    28,    31,'1 ',5.10700E-2,1.04683E-1,1.43500E-2,  58.30,  58.30,  58.30,  0.00000,  0.00000,  0.00000,  0.00000, 1,1,   0.00,   1,1.0000,   0,1.0000,   0,1.0000,   0,1.0000
    29,    30,'1 ',1.47900E-2,3.66560E-2,1.88000E-3,  49.30,  49.30,  49.30,  0.00000,  0.00000,  0.00000,  0.00000, 1,1,   0.00,   1,1.0000,   0,1.0000,   0,1.0000,   0,1.0000
    29,    32,'1 ',2.31500E-2,6.13470E-2,1.73000E-3,  60.00,  60.00,  60.00,  0.00000,  0.00000,  0.00000,  0.00000, 1,1,   0.00,   1,1.0000,   0,1.0000,   0,1.0000,   0,1.0000
    31,    33,'1 ',2.69600E-2,5.76120E-2,3.33000E-3,  38.00,  38.00,  38.00,  0.00000,  0.00000,  0.00000,  0.00000, 1,1,   0.00,   1,1.0000,   0,1.0000,   0,1.0000,   0,1.0000
    33,    34,'1 ',3.52800E-2,8.39270E-2,2.56000E-3,  84.30,  84.30,  84.30,  0.00000,  0.00000,  0.00000,  0.00000, 1,1,   0.00,   1,1.0000,   0,1.0000,   0,1.0000,   0,1.0000
    33,    34,'2 ',3.52800E-2,8.39270E-2,2.56000E-3,  84.30,  84.30,  84.30,  0.00000,  0.00000,  0.00000,  0.00000, 1,1,   0.00,   1,1.0000,   0,1.0000,   0,1.0000,   0,1.0000
    35,    37,'1 ',1.52000E-3,8.37400E-3,8.09000E-3, 297.60, 297.60, 297.60,  0.00000,  0.00000,  0.00000,  0.00000, 1,1,   0.00,   1,1.0000,   0,1.0000,   0,1.0000,   0,1.0000
0 / END OF BRANCH DATA, BEGIN TRANSFORMER DATA
     1,     2,    0,'1 ',1,1,1,0.00000E-1,0.00000E-1,2,'            ', 1,   1,1.0000,   0,1.0000,   0,1.0000,   0,1.0000,'            '
4.84000E-3,1.23766E-1, 100.00
1.000000,138.000,   0.000, 123.20, 123.20, 123.20, 0,     0,1.500000,0.510000,1.500000,0.510000,159, 0, 0.00000, 0.00000,  0.000
1.000000, 69.000
     1,     2,    0,'2 ',1,1,1,0.00000E-1,0.00000E-1,2,'            ', 1,   1,1.0000,   0,1.0000,   0,1.0000,   0,1.0000,'            '
4.84000E-3,1.23766E-1, 100.00
1.000000,138.000,   0.000, 123.20, 123.20, 123.20, 0,     0,1.500000,0.510000,1.500000,0.510000,159, 0, 0.00000, 0.00000,  0.000
1.000000, 69.000
     1,     2,    0,'3 ',1,1,1,0.00000E-1,0.00000E-1,2,'            ', 1,   1,1.0000,   0,1.0000,   0,1.0000,   0,1.0000,'            '
4.84000E-3,1.23766E-1, 100.00
1.000000,138.000,   0.000, 123.20, 123.20, 123.20, 0,     0,1.500000,0.510000,1.500000,0.510000,159, 0, 0.00000, 0.00000,  0.000
1.000000, 69.000
     5,     6,    0,'1 ',1,1,1,0.00000E-1,0.00000E-1,2,'            ', 1,   1,1.0000,   0,1.0000,   0,1.0000,   0,1.0000,'            '
4.79000E-3,1.39559E-1, 100.00
1.000000,138.000,   0.000, 198.00, 198.00, 198.00, 0,     0,1.500000,0.510000,1.500000,0.510000,159, 0, 0.00000, 0.00000,  0.000
1.000000, 69.000
     9,    10,    0,'1 ',1,1,1,0.00000E-1,0.00000E-1,2,'            ', 1,   1,1.0000,   0,1.0000,   0,1.0000,   0,1.0000,'            '
4.68000E-3,1.25654E-1, 100.00
1.000000,138.000,   0.000,  56.20,  56.20,  56.20, 0,     0,1.500000,0.510000,1.500000,0.510000,159, 0, 0.00000, 0.00000,  0.000
1.000000, 69.000
    14,    15,    0,'1 ',1,1,1,0.00000E-1,0.00000E-1,2,'            ', 1,   1,1.0000,   0,1.0000,   0,1.0000,   0,1.0000,'            '
3.25000E-3,1.31522E-1, 100.00
1.000000,138.000,   0.000,  85.90,  85.90,  85.90, 0,     0,1.500000,0.510000,1.500000,0.510000,159, 0, 0.00000, 0.00000,  0.000
1.000000, 69.000
    14,    15,    0,'2 ',1,1,1,0.00000E-1,0.00000E-1,2,'            ', 1,   1,1.0000,   0,1.0000,   0,1.0000,   0,1.0000,'            '
3.25000E-3,1.31522E-1, 100.00
1.000000,138.000,   0.000,  85.90,  85.90,  85.90, 0,     0,1.500000,0.510000,1.500000,0.510000,159, 0, 0.00000, 0.00000,  0.000
1.000000, 69.000
    22,    23,    0,'1 ',1,1,1,0.00000E-1,0.00000E-1,2,'            ', 1,   1,1.0000,   0,1.0000,   0,1.0000,   0,1.0000,'            '
4.45000E-3,1.16580E-1, 100.00
1.000000,138.000,   0.000, 149.60, 149.60, 149.60, 0,     0,1.500000,0.510000,1.500000,0.510000,159, 0, 0.00000, 0.00000,  0.000
1.000000, 69.000
    22,    23,    0,'2 ',1,1,1,0.00000E-1,0.00000E-1,2,'            ', 1,   1,1.0000,   0,1.0000,   0,1.0000,   0,1.0000,'            '
4.45000E-3,1.16580E-1, 100.00
1.000000,138.000,   0.000, 149.60, 149.60, 149.60, 0,     0,1.500000,0.510000,1.500000,0.510000,159, 0, 0.00000, 0.00000,  0.000
1.000000, 69.000
    22,    23,    0,'3 ',1,1,1,0.00000E-1,0.00000E-1,2,'            ', 1,   1,1.0000,   0,1.0000,   0,1.0000,   0,1.0000,'            '
4.45000E-3,1.16580E-1, 100.00
1.000000,138.000,   0.000, 149.60, 149.60, 149.60, 0,     0,1.500000,0.510000,1.500000,0.510000,159, 0, 0.00000, 0.00000,  0.000
1.000000, 69.000
    25,    26,    0,'1 ',1,1,1,0.00000E-1,0.00000E-1,2,'            ', 1,   1,1.0000,   0,1.0000,   0,1.0000,   0,1.0000,'            '
5.32000E-3,1.47265E-1, 100.00
1.000000,138.000,   0.000, 131.70, 131.70, 131.70, 0,     0,1.500000,0.510000,1.500000,0.510000,159, 0, 0.00000, 0.00000,  0.000
1.000000, 69.000
    25,    26,    0,'2 ',1,1,1,0.00000E-1,0.00000E-1,2,'            ', 1,   1,1.0000,   0,1.0000,   0,1.0000,   0,1.0000,'            '
5.32000E-3,1.47265E-1, 100.00
1.000000,138.000,   0.000, 131.70, 131.70, 131.70, 0,     0,1.500000,0.510000,1.500000,0.510000,159, 0, 0.00000, 0.00000,  0.000
1.000000, 69.000
0 / END OF TRANSFORMER DATA, BEGIN AREA DATA
   1,    0,     0.000,     1.000,'Oahu        '
0 / END OF AREA DATA, BEGIN TWO-TERMINAL DC DATA
0 / END OF TWO-TERMINAL DC DATA, BEGIN VOLTAGE SOURCE CONVERTER DATA
0 / END OF VOLTAGE SOURCE CONVERTER DATA, BEGIN IMPEDANCE CORRECTION DATA
0 / END OF IMPEDANCE CORRECTION DATA, BEGIN MULTI-TERMINAL DC DATA
0 / END OF MULTI-TERMINAL DC DATA, BEGIN MULTI-SECTION LINE DATA
0 / END OF MULTI-SECTION LINE DATA, BEGIN ZONE DATA
   1,'1           '
0 / END OF ZONE DATA, BEGIN INTER-AREA TRANSFER DATA
0 / END OF INTER-AREA TRANSFER DATA, BEGIN OWNER DATA
    1,'1'
0 / END OF OWNER DATA, BEGIN FACTS CONTROL DEVICE DATA
0 / END OF FACTS CONTROL DEVICE DATA, BEGIN SWITCHED SHUNT DATA
   16,1,0,1,1.04000,1.02000,    0,100.0,'        ',   32.00, 4,   8.00
0 /END OF SWITCHED SHUNT DATA, BEGIN GNE DEVICE DATA
0 /END OF GNE DEVICE DATA
0 / END OF INDUCTION MACHINE DATA
Q
